#===============================================================================

data_ureacif

#===============================================================================

# 5. CHEMICAL DATA

_chemical_name_systematic                        
;
;
_chemical_name_common                             ?
_chemical_melting_point                           ?
_chemical_formula_moiety                         
'C H4 N2 O'
# Ex: 'C12 H16 N2 O6, H2 O' and '(Cd 2+)3, (C6 N6 Cr 3-)2, 2(H2 O)' 
_chemical_formula_structural                      ?
_chemical_formula_sum                            
'C H4 N2 O'
_chemical_formula_iupac                           ?
_chemical_formula_weight                              60.06
_chemical_compound_source                        'see text'

loop_
_atom_type_symbol                                
_atom_type_description                           
_atom_type_scat_dispersion_real                  
_atom_type_scat_dispersion_imag                  
_atom_type_scat_source                           
 C   C    0.0033    0.0016
' International Tables Vol C Tables 4.2.6.8 and 6.1.1.4'
 H   H    0.0000    0.0000
' International Tables Vol C Tables 4.2.6.8 and 6.1.1.4'
 N   N    0.0061    0.0033
' International Tables Vol C Tables 4.2.6.8 and 6.1.1.4'
 O   O    0.0106    0.0060
' International Tables Vol C Tables 4.2.6.8 and 6.1.1.4'

#===============================================================================

# 6. CRYSTAL DATA

_symmetry_cell_setting                              tetragonal
_symmetry_space_group_name_Hall                   'P -4 2ab'
_symmetry_space_group_name_H-M                    'P -4 21 m'
_symmetry_Int_Tables_number                             113

loop_
_space_group_symop_id                            
_space_group_symop_operation_xyz                 
   1 x,y,z                         
   2 y,-x,-z                       
   3 -x,-y,z                       
   4 -y,x,-z                       
   5 1/2+x,1/2-y,-z                
   6 1/2-y,1/2-x,z                 
   7 1/2-x,1/2+y,-z                
   8 1/2+y,1/2+x,z                 

_cell_length_a                                          5.49870
_cell_length_b                                          5.49870
_cell_length_c                                          4.63950
_cell_angle_alpha                                            90
_cell_angle_beta                                             90
_cell_angle_gamma                                            90
_cell_volume                                            140.279
_cell_formula_units_Z                                 2
_cell_measurement_temperature                     ?
_cell_measurement_reflns_used                     ?
_cell_measurement_theta_min                       ?
_cell_measurement_theta_max                       ?
_cell_special_details                            
;
 
;

#===============================================================================

# 9. ATOMIC COORDINATES AND DISPLACEMENT PARAMETERS

loop_
_atom_site_label                                 
_atom_site_type_symbol                           
_atom_site_thermal_displace_type                 
_atom_site_fract_x                               
_atom_site_fract_y                               
_atom_site_fract_z                               
_atom_site_occupancy                             
_atom_site_U_iso_or_equiv                        
_atom_site_calc_flag                             
_atom_site_refinement_flags                      
_atom_site_disorder_assembly                     
_atom_site_disorder_group                        
O1 O Uiso 0.50000 0.00000 0.60177 1.000 0.0127 . . . .                          
N1 N Uiso 0.64794 0.14794 0.17536 1.000 0.0127 . . . .                          
C1 C Uiso 0.50000 0.00000 0.32595 1.000 0.0127 . . . .                          
H1 H Uiso 0.76284 0.26284 0.27940 1.000 0.0152 . . . .                          
H5 H Uiso 0.64505 0.14505 -0.04306 1.000 0.0152 . . . .                         

#===============================================================================

